title line

R1 1 0 10
R2 1 0 10
V1 1 0 5
R3 2 0 10
F1 2 3 V1 2
R4 3 0 10

.model NMODEL NMOS (LEVEL = 49, VTH0 = 0.5,
+ U0 = 1e-6, U1 = 2.3, U2 = 0.1,
+ A0 = 1, AG = 2, K1 = 0.1, K2 = 0.2)

.param a=1, b=2, c=3

.DC V1 1 10 1 V2 2 30 2
.AC LIN 10 1 100
.AC DEC 10 1K 100MEG
.DC V2 1 100 5 
.PRINT V(1)
